; Filename: data/Alameda.inp
; WNTR: 0.3.0
; Created: 2020-12-01 16:17:26
[TITLE]

[JUNCTIONS]
;ID                      Elevation       Demand Pattern                 
 109427                            15               0                            ;
 120720                            10       35.214072 V_DIURNALG0A               ;
 120922                            10               0                            ;
 122595                            10        8.050267 V_DIURNALG0A               ;
 123032                            10        3.198292 V_DIURNALG0A               ;
 123033                            10       23.530146 V_DIURNALG0A               ;
 123034                            10        7.067504 V_DIURNALG0A               ;
 123035                            10        0.001279                            ;
 123036                            10        0.510027 V_DIURNALG0A               ;
 123037                            10       29.009147 V_DIURNALG0A               ;
 123039                            10       11.492191 V_DIURNALG0A               ;
 123040                            10        4.452266 V_DIURNALG0A               ;
 123041                            10        7.530451 V_DIURNALG0A               ;
 123042                            10       16.043588 V_DIURNALG0A               ;
 123043                            10        2.165264 V_DIURNALG0A               ;
 123044                            10        3.136607 V_DIURNALG0A               ;
 123045                            10       10.373084 V_DIURNALG0A               ;
 123046                            10        3.677476 V_DIURNALG0A               ;
 123047                            10               0                            ;
 123049                            10        13.64285 V_DIURNALG0A               ;
 123050                            10        3.359108 V_DIURNALG0A               ;
 123051                            10        1.452159 V_DIURNALG0A               ;
 123052                            10        3.225949 V_DIURNALG0A               ;
 123053                        7.7088        3.768528 V_DIURNALG0A               ;
 123055                            10        5.147581 V_DIURNALG0A               ;
 123057                            10               0                            ;
 123058                            10        0.250158 V_DIURNALG0A               ;
 123059                            10        0.542501 V_DIURNALG0A               ;
 123060                            10        1.405079 V_DIURNALG0A               ;
 123061                            10        1.377422 V_DIURNALG0A               ;
 123062                            10               0                            ;
 123063                            10        9.897163 V_DIURNALG0A               ;
 123064                            10       32.018966 V_DIURNALG0A               ;
 123066                            10        1.206895 V_DIURNALG0A               ;
 123067                            10       16.582904 V_DIURNALG0A               ;
 123068                            10       21.327591 V_DIURNALG0A               ;
 123069                            10        8.339347 V_DIURNALG0A               ;
 123070                            10         8.95169 V_DIURNALG0A               ;
 123071                            10       24.366776 V_DIURNALG0A               ;
 123072                            10         2.72237 V_DIURNALG0A               ;
 123073                            10               0                            ;
 123074                            10        1.629211 V_DIURNALG0A               ;
 156611                       21.2904        1.067211 V_DIURNALG0A               ;
 156614                       20.0663         1.34658 V_DIURNALG0A               ;
 156617                       14.4013        0.758553 V_DIURNALG0A               ;
 156626                       10.9615               0                            ;
 156798                        9.3581               0                            ;
 156799                            20         1.50087 V_DIURNALG0A               ;
 156845                       18.6483        0.290789 V_DIURNALG0A               ;
 156850                       17.4886        0.584763 V_DIURNALG0A               ;
 156858                       20.7943        1.903764 V_DIURNALG0A               ;
 156863                       12.0614               0                            ;
 156888                       13.1339               0                            ;
 156889                       14.4501        0.404448 V_DIURNALG0A               ;
 156890                       16.3949        2.339054 V_DIURNALG0A               ;
 156891                       11.8812        0.761816 V_DIURNALG0A               ;
 156892                       17.1433        0.906395 V_DIURNALG0A               ;
 156893                        19.927        0.246895 V_DIURNALG0A               ;
 157498                        9.1124        0.021131 V_DIURNALG0A               ;
 157499                        9.5756        1.749396 V_DIURNALG0A               ;
 157500                        9.5741        1.005448 V_DIURNALG0A               ;
 157501                       13.2554        0.981132 V_DIURNALG0A               ;
 157502                       13.0444        3.372159 V_DIURNALG0A               ;
 157661                       12.1331               0                            ;
 157662                        11.907        0.248526 V_DIURNALG0A               ;
 157663                       11.3064               0                            ;
 157664                        11.294        0.487264 V_DIURNALG0A               ;
 157665                       12.0554        0.417422 V_DIURNALG0A               ;
 157666                        11.811        1.664948 V_DIURNALG0A               ;
 157667                       12.7044        2.743502 V_DIURNALG0A               ;
 157668                       13.9217        2.550212 V_DIURNALG0A               ;
 157669                       12.2552        3.882186 V_DIURNALG0A               ;
 157670                        9.9164        3.253529 V_DIURNALG0A               ;
 157671                       11.3868        3.058607 V_DIURNALG0A               ;
 157672                        11.378        2.923817 V_DIURNALG0A               ;
 157673                        6.9849        1.247526 V_DIURNALG0A               ;
 157674                        6.0891        0.432027 V_DIURNALG0A               ;
 157675                       11.5145        1.746133 V_DIURNALG0A               ;
 157676                       12.7694        2.235106 V_DIURNALG0A               ;
 157677                       11.3304        1.052605 V_DIURNALG0A               ;
 157678                        10.625         3.76845 V_DIURNALG0A               ;
 157679                       11.4148        3.493975 V_DIURNALG0A               ;
 157680                       11.8529        1.471659 V_DIURNALG0A               ;
 157681                       12.2538        0.703317 V_DIURNALG0A               ;
 157682                        8.2741        1.517107 V_DIURNALG0A               ;
 157683                        8.1245        0.438553 V_DIURNALG0A               ;
 157684                        8.3582        0.688711 V_DIURNALG0A               ;
 157685                        8.5932        0.977869 V_DIURNALG0A               ;
 157686                        7.6191        0.765079 V_DIURNALG0A               ;
 157687                        8.0944        0.256684 V_DIURNALG0A               ;
 157688                        7.8957               0                            ;
 157689                        7.8317        1.062316 V_DIURNALG0A               ;
 157690                        6.8664        1.817607 V_DIURNALG0A               ;
 157691                          6.86        0.274474 V_DIURNALG0A               ;
 157692                        7.4925        1.458685 V_DIURNALG0A               ;
 157693                        6.9419        0.909658 V_DIURNALG0A               ;
 157703                       11.6142        1.283263 V_DIURNALG0A               ;
 157765                       10.6177        0.521447 V_DIURNALG0A               ;
 157767                        5.7671        4.648819 V_DIURNALG0A               ;
 157811                       13.6585        1.708842 V_DIURNALG0A               ;
 157812                        13.644        2.300054 V_DIURNALG0A               ;
 157839                       12.0092        0.677369 V_DIURNALG0A               ;
 157840                       11.8535        0.472659 V_DIURNALG0A               ;
 157841                       13.3955        1.406711 V_DIURNALG0A               ;
 157842                       13.1713        3.469581 V_DIURNALG0A               ;
 157843                       12.8609        1.379054 V_DIURNALG0A               ;
 157844                         11.86        2.189581 V_DIURNALG0A               ;
 157845                         8.871        1.226395 V_DIURNALG0A               ;
 157846                        6.8236               0                            ;
 157857                            10        2.865318 V_DIURNALG0A               ;
 157867                        7.0743        0.432105 V_DIURNALG0A               ;
 157868                        7.1296               0                            ;
 157869                        7.1887        0.685448 V_DIURNALG0A               ;
 157879                        8.2448        3.258423 V_DIURNALG0A               ;
 157880                       13.1796        1.336869 V_DIURNALG0A               ;
 157881                        7.1023               0                            ;
 157920                        6.6088        0.004894 V_DIURNALG0A               ;
 157921                        6.4091         2.12137 V_DIURNALG0A               ;
 157922                        5.5567        2.678554 V_DIURNALG0A               ;
 157923                        6.4619               0                            ;
 157927                            10        4.239555 V_DIURNALG0A               ;
 157928                            10        4.955845 V_DIURNALG0A               ;
 157930                            10        2.469027 V_DIURNALG0A               ;
 157931                        9.6209        0.557184 V_DIURNALG0A               ;
 157932                            10         0.53279 V_DIURNALG0A               ;
 157940                       13.3504        1.374159 V_DIURNALG0A               ;
 157941                        5.6917        2.291974 V_DIURNALG0A               ;
 161841                        6.5907        3.735976 V_DIURNALG0A               ;
 161842                        6.7311        3.212975 V_DIURNALG0A               ;
 161853                        6.9672        1.338422 V_DIURNALG0A               ;
 161854                        9.0235        1.846895 V_DIURNALG0A               ;
 161855                         7.119        3.048896 V_DIURNALG0A               ;
 161856                       10.6903        0.695237 V_DIURNALG0A               ;
 161857                       10.2114        0.388211 V_DIURNALG0A               ;
 161859                       10.2209        2.181501 V_DIURNALG0A               ;
 161861                            10        0.043894 V_DIURNALG0A               ;
 161862                        9.9092        1.892421 V_DIURNALG0A               ;
 161863                        10.754        1.561001 V_DIURNALG0A               ;
 161864                            10        2.313028 V_DIURNALG0A               ;
 161866                        9.2657        0.402816 V_DIURNALG0A               ;
 161867                        9.9861               0                            ;
 161868                         9.958               0                            ;
 161869                        8.4903        3.487527 V_DIURNALG0A               ;
 161870                        8.5657        6.300793 V_DIURNALG0A               ;
 161871                        6.0409        2.165264 V_DIURNALG0A               ;
 161872                        5.8967        0.779685 V_DIURNALG0A               ;
 161873                        6.0821        0.557184 V_DIURNALG0A               ;
 161874                         5.946        1.554475 V_DIURNALG0A               ;
 161875                       12.4866        1.317369 V_DIURNALG0A               ;
 161876                       11.7239        4.603371 V_DIURNALG0A               ;
 161877                         7.371        4.567634 V_DIURNALG0A               ;
 161878                        7.9981        2.447896 V_DIURNALG0A               ;
 161879                          7.26        0.484079 V_DIURNALG0A               ;
 161889                        6.4708        0.307026 V_DIURNALG0A               ;
 161890                        6.7869        1.538238 V_DIURNALG0A               ;
 161891                        6.6511        0.701685 V_DIURNALG0A               ;
 161892                        7.8404        1.135422 V_DIURNALG0A               ;
 161894                        7.7474        4.211897 V_DIURNALG0A               ;
 161895                        6.5412        1.993028 V_DIURNALG0A               ;
 161896                        6.8033        1.833844 V_DIURNALG0A               ;
 161897                        5.6873        1.676291 V_DIURNALG0A               ;
 161898                        5.5547        2.199369 V_DIURNALG0A               ;
 161899                        6.9459        8.084372 V_DIURNALG0A               ;
 161900                        5.7176         1.80137 V_DIURNALG0A               ;
 161901                        5.8371        1.718554 V_DIURNALG0A               ;
 161902                             5        2.366633 V_DIURNALG0A               ;
 161906                        5.9573        1.200369 V_DIURNALG0A               ;
 161908                        5.8096        0.795922 V_DIURNALG0A               ;
 161910                        7.0134        1.557738 V_DIURNALG0A               ;
 161911                        5.8555        0.596106 V_DIURNALG0A               ;
 161912                        5.8959        4.367896 V_DIURNALG0A               ;
 161913                        5.8526        1.184132 V_DIURNALG0A               ;
 161915                        9.1478               0                            ;
 161916                       10.0741        0.713105 V_DIURNALG0A               ;
 161917                       11.5473        1.073659 V_DIURNALG0A               ;
 161918                        9.2092        0.443448 V_DIURNALG0A               ;
 161920                        7.9607        0.198184 V_DIURNALG0A               ;
 161921                        5.8541        0.605895 V_DIURNALG0A               ;
 161922                        7.6656        0.925895 V_DIURNALG0A               ;
 161923                        7.7884        0.527895 V_DIURNALG0A               ;
 161924                        5.6228         1.41479 V_DIURNALG0A               ;
 161925                             5        2.186395 V_DIURNALG0A               ;
 161926                             5        2.405633 V_DIURNALG0A               ;
 161927                             5         10.4364 V_DIURNALG0A               ;
 161928                        9.9412        0.612343 V_DIURNALG0A               ;
 161930                        7.2439               0                            ;
 161931                        5.0941        0.724448 V_DIURNALG0A               ;
 161932                            10        0.862501 V_DIURNALG0A               ;
 161933                        5.4931        0.680631 V_DIURNALG0A               ;
 161934                        7.8037               0                            ;
 161936                        5.9636        0.355737 V_DIURNALG0A               ;
 161939                        5.6835        1.343317 V_DIURNALG0A               ;
 161940                        5.7565               0                            ;
 161941                        5.7375               0                            ;
 161942                        5.5225        1.065579 V_DIURNALG0A               ;
 161943                            10         4.97216 V_DIURNALG0A               ;
 161944                        7.2426               0                            ;
 161945                        7.2181        2.595738 V_DIURNALG0A               ;
 161946                        5.5908        3.209712 V_DIURNALG0A               ;
 161947                       12.2073        0.784579 V_DIURNALG0A               ;
 161948                       12.4293        1.723448 V_DIURNALG0A               ;
 161950                        5.6683        2.631397 V_DIURNALG0A               ;
 161951                         5.684        1.419685 V_DIURNALG0A               ;
 168938                       19.1249        1.177684 V_DIURNALG0A               ;
 168939                       18.1362        0.904686 V_DIURNALG0A               ;
 168941                        9.6047        0.051974 V_DIURNALG0A               ;
 168942                        9.7653         1.02658 V_DIURNALG0A               ;
 168944                       12.6289        1.227949 V_DIURNALG0A               ;
 168945                       13.6801        1.109396 V_DIURNALG0A               ;
 168946                       15.9094        1.205264 V_DIURNALG0A               ;
 168947                       15.8798        2.691528 V_DIURNALG0A               ;
 168948                       16.3291               0                            ;
 168949                       16.2668        1.942686 V_DIURNALG0A               ;
 168950                       19.1374        0.732605 V_DIURNALG0A               ;
 168951                       19.0493          0.6205 V_DIURNALG0A               ;
 168953                       10.7072        1.002263 V_DIURNALG0A               ;
 169029                        11.994        0.380131 V_DIURNALG0A               ;
 169030                       11.8409               0                            ;
 169118                       12.0703        2.282186 V_DIURNALG0A               ;
 169119                       12.0816         2.36337 V_DIURNALG0A               ;
 169120                       11.3509        1.465133 V_DIURNALG0A               ;
 169121                        11.158        0.029211 V_DIURNALG0A               ;
 169122                       11.8917        0.917738 V_DIURNALG0A               ;
 169123                       10.1249        8.405926 V_DIURNALG0A               ;
 169164                       18.1149        1.768974 V_DIURNALG0A               ;
 169165                            15        2.811712 V_DIURNALG0A               ;
 169166                       13.9227        1.385579 V_DIURNALG0A               ;
 169167                       18.4587               0                            ;
 169168                       13.8307               0                            ;
 169169                       16.2948        3.214529 V_DIURNALG0A               ;
 169170                       16.3459               0                            ;
 169177                       18.8873        1.115922 V_DIURNALG0A               ;
 169179                       17.8009        0.903132 V_DIURNALG0A               ;
 169188                       12.0844        9.822426 V_DIURNALG0A               ;
 193357                         25.95         2.16037 V_DIURNALG0A               ;
 193358                        26.103        1.504133 V_DIURNALG0A               ;
 193365                       26.9699        1.483001 V_DIURNALG0A               ;
 193366                       19.0665        1.702317 V_DIURNALG0A               ;
 193419                            25        1.046079 V_DIURNALG0A               ;
 193503                       25.4491        2.446187 V_DIURNALG0A               ;
 193504                       26.5506        1.119185 V_DIURNALG0A               ;
 193506                       26.7137        1.221501 V_DIURNALG0A               ;
 193523                       17.3635        3.026133 V_DIURNALG0A               ;
 193532                            25        1.721817 V_DIURNALG0A               ;
 193533                            25        8.747135 V_DIURNALG0A               ;
 193535                       26.2133        1.842001 V_DIURNALG0A               ;
 193581                       25.4962        1.008711 V_DIURNALG0A               ;
 193583                       24.5639       10.092084 V_DIURNALG0A               ;
 193585                       13.8503        4.072213 V_DIURNALG0A               ;
 193589                       21.3216        0.250158 V_DIURNALG0A               ;
 193595                       21.1302        1.726711 V_DIURNALG0A               ;
 193604                       24.6059         2.04508 V_DIURNALG0A               ;
 193873                        9.1295        4.332082 V_DIURNALG0A               ;
 194070                       13.0106        0.961554 V_DIURNALG0A               ;
 237681                            10               0                            ;
 240584                       21.1947        1.145133 V_DIURNALG0A               ;
 240585                       21.3166         1.55129 V_DIURNALG0A               ;
 240586                        23.757        0.652974 V_DIURNALG0A               ;
 240587                       23.8466        0.685448 V_DIURNALG0A               ;
 240588                       19.6079         3.94558 V_DIURNALG0A               ;
 240589                        19.379        2.933606 V_DIURNALG0A               ;
 240590                       23.4524               0                            ;
 240591                       23.4366        6.172529 V_DIURNALG0A               ;
 240592                       20.7521        3.945503 V_DIURNALG0A               ;
 240593                       22.2952        9.867796 V_DIURNALG0A               ;
 240594                       10.0704        1.405079 V_DIURNALG0A               ;
 240596                        9.9154               0                            ;
 240597                        18.675          8.7389 V_DIURNALG0A               ;
 240598                       11.0375               0                            ;
 240599                       19.1217        5.686819 V_DIURNALG0A               ;
 240600                       10.8239        2.611975 V_DIURNALG0A               ;
 240601                        9.6839               0                            ;
 240602                       18.7973        2.508027 V_DIURNALG0A               ;
 240603                       19.4424        1.955737 V_DIURNALG0A               ;
 240604                       25.7009        8.394661 V_DIURNALG0A               ;
 240605                       22.4216        7.387582 V_DIURNALG0A               ;
 240606                       27.1646               0                            ;
 240607                       26.4115        1.292974 V_DIURNALG0A               ;
 240608                       26.3108               0                            ;
 240609                       26.0935               0                            ;
 240610                       22.6618        1.039476 V_DIURNALG0A               ;
 240611                       22.7961        2.696422 V_DIURNALG0A               ;
 240612                       25.7227        4.976977 V_DIURNALG0A               ;
 240613                       26.1997       13.382903 V_DIURNALG0A               ;
 240614                       19.1945        2.720739 V_DIURNALG0A               ;
 240615                            30        1.072105 V_DIURNALG0A               ;
 240616                       26.4558       11.581533 V_DIURNALG0A               ;
 240617                            30       10.335716 V_DIURNALG0A               ;
 240618                       26.8706        0.017868 V_DIURNALG0A               ;
 240619                       28.5102        4.886003 V_DIURNALG0A               ;
 240620                       26.9652        0.717922 V_DIURNALG0A               ;
 240621                       29.1173        1.867949 V_DIURNALG0A               ;
 240622                       26.3859        1.002185 V_DIURNALG0A               ;
 240623                       26.3555        4.046265 V_DIURNALG0A               ;
 240624                            30        4.232951 V_DIURNALG0A               ;
 240625                            30        2.524264 V_DIURNALG0A               ;
 240626                       11.5433               0                            ;
 240627                       11.7128               0                            ;
 240628                        9.6775               0                            ;
 240629                        9.7608               0                            ;
 240630                        9.2183               0                            ;
 240631                         9.296               0                            ;
 240632                       12.7229               0                            ;
 240633                       12.4393               0                            ;
 240634                       12.8726        0.220947 V_DIURNALG0A               ;
 240635                        12.873               0                            ;
 240636                       12.5166        0.389842 V_DIURNALG0A               ;
 240637                       16.1391         3.87566 V_DIURNALG0A               ;
 240638                       16.5942        2.848925 V_DIURNALG0A               ;
 240639                        12.892        0.432105 V_DIURNALG0A               ;
 240640                       12.9012        0.438553 V_DIURNALG0A               ;
 240641                       12.8402               0                            ;
 240642                       12.8488               0                            ;
 240643                       20.4681         2.59566 V_DIURNALG0A               ;
 240644                            20        2.925527 V_DIURNALG0A               ;
 240645                       23.4171        1.242632 V_DIURNALG0A               ;
 240646                            20        3.571975 V_DIURNALG0A               ;
 240647                       22.2737        1.305948 V_DIURNALG0A               ;
 240648                       16.5951        2.083924 V_DIURNALG0A               ;
 240649                        9.0288               0                            ;
 240650                       12.7928        1.759185 V_DIURNALG0A               ;
 240651                       15.9384        4.598554 V_DIURNALG0A               ;
 240652                       19.2348        0.534421 V_DIURNALG0A               ;
 240653                       13.2813        0.256606 V_DIURNALG0A               ;
 240654                       13.0999        0.656237 V_DIURNALG0A               ;
 240655                         8.855               0                            ;
 240656                        8.7908        0.287526 V_DIURNALG0A               ;
 240657                        8.7103        0.183579 V_DIURNALG0A               ;
 240658                        8.4905        0.492158 V_DIURNALG0A               ;
 240659                         8.864               0                            ;
 240682                        9.8652               0                            ;
 240683                        9.3965               0                            ;
 240686                        9.6512               0                            ;
 240687                         9.552               0                            ;
 240688                       12.1591        0.448264 V_DIURNALG0A               ;
 240689                        9.3116        2.168449 V_DIURNALG0A               ;
 240690                        9.3532        0.042263 V_DIURNALG0A               ;
 240691                       12.2531        0.391474 V_DIURNALG0A               ;
 240692                        9.3532               0                            ;
 240699                       12.0994        0.149473 V_DIURNALG0A               ;
 240701                       12.5948        1.065579 V_DIURNALG0A               ;
 240702                       12.8274               0                            ;
 240703                       12.9308        3.018054 V_DIURNALG0A               ;
 240704                       11.8916        0.839816 V_DIURNALG0A               ;
 240705                       11.4651        1.551212 V_DIURNALG0A               ;
 240707                       12.2749        0.316737 V_DIURNALG0A               ;
 240708                       12.5398               0                            ;
 240709                       12.3836               0                            ;
 240710                        12.404               0                            ;
 240711                       12.5813               0                            ;
 240712                       12.7153               0                            ;
 240713                       15.4912        0.232289 V_DIURNALG0A               ;
 240714                       15.4475        0.053605 V_DIURNALG0A               ;
 240715                       15.8707        0.345948 V_DIURNALG0A               ;
 240716                       16.7428        0.859316 V_DIURNALG0A               ;
 240717                       15.6202        0.323263 V_DIURNALG0A               ;
 240718                       15.5048               0                            ;
 240719                       27.6328        0.069842 V_DIURNALG0A               ;
 240722                            30        9.482848 V_DIURNALG0A               ;