[JUNCTIONS]
;ID   Elev   Demand   Pattern  
72219   12.69   0.535227034906      ;
72220   12.93   0.0      ;
72625   13.7   1.953578677407      ;
72626   14.32   2.702896526275      ;
72627   13.38   0.0      ;
72628   13.57   0.160568110472      ;
72728   12.34   0.374658924434      ;
72729   12.72   0.0      ;
72796   13.24   0.0      ;
72797   13.24   0.0      ;
72812   13.3   0.0      ;
72877   12.24   4.281816279251      ;
72878   12.48   2.167669491367      ;
73590   12.88   1.123976773303      ;
73591   12.67   0.0      ;
73696   13.22   1.6592038082119998      ;
73697   13.51   0.0      ;
74179   12.73   0.240852165708      ;
74180   12.65   0.0      ;
74587   13.22   0.2408521657076      ;
74588   13.13   0.0      ;
75103   12.41   0.374658924434      ;
75104   12.41   0.669033793632      ;
75483   13.35   4.62971385194      ;
75484   13.35   0.6957951453769999      ;
75513   12.72   0.0      ;
75949   13.24   0.0      ;
76154   12.87   4.549429796702      ;
76155   13.31   2.3817603053306      ;
76287   13.51   0.6690337936330001      ;
76288   13.94   0.45494297967      ;
76402   12.53   0.0      ;
76403   12.14   3.211362209432      ;
76637   12.32   4.201532224008002      ;
76638   12.79   0.0      ;
76908   12.86   0.0      ;
77346   12.73   1.150738125048      ;
77424   13.96   0.508465683161      ;
77425   13.96   0.294374869198      ;
77988   13.13   0.0      ;
77989   13.21   2.7831805815099995      ;
78624   12.79   0.0      ;
78625   12.79   0.347897572689      ;
79398   13.04   0.8563632558499998      ;
79399   13.27   5.7269292734946005      ;
79639   12.9   0.0      ;
79640   12.9   0.0      ;
79883   11.88   0.347897572689      ;
79884   12.41   0.0      ;
79887   11.79   1.177499476793      ;
80156   12.72   0.0      ;
80157   12.91   0.401420276179      ;
80313   10.82   0.0      ;
80465   12.48   0.45494297967      ;
80728   13.24   0.0      ;
81593   12.72   0.0      ;
81667   13.3   1.123976773302      ;
81689   12.55   0.294374869198      ;
81690   12.55   1.284544883775      ;
82006   12.04   0.0      ;
82007   12.04   3.050794098966      ;
82207   13.89   0.0      ;
82208   13.51   0.0      ;
82332   12.64   1.6324424564630002      ;
82333   13.13   1.1507381250489999      ;
82679   12.72   0.0      ;
82680   12.72   1.0169313663206      ;
84032   13.05   3.9339187065586      ;
84625   12.21   0.615511090142      ;
84626   12.18   4.7367592589209995      ;
85299   13.46   0.0      ;
85300   13.46   3.5860211338699997      ;
85336   12.43   2.0338627326399      ;
85426   12.26   1.471874345992      ;
85427   12.72   0.374658924434      ;
85492   12.48   0.0      ;
85493   13.16   0.0      ;
86133   12.93   0.7760792006139999      ;
86134   13.08   1.1774994767935      ;
86630   12.35   6.235394956652      ;
86776   14.25   0.0      ;
86777   13.63   1.980340029152      ;
86947   13.36   4.924088721132598      ;
86948   13.2   3.7733505960868996      ;
87275   14.82   0.0      ;
87276   14.53   0.0      ;
87700   13.15   4.522668444956      ;
87701   12.12   2.569089767552      ;
87990   13.01   0.0      ;
87991   13.16   0.0      ;
88042   13.2   0.0      ;
88043   13.2   0.0      ;
88577   12.74   0.8296019041049001      ;
88578   12.21   2.1944308431156      ;
89128   13.24   0.053522703490599996      ;
89333   13.16   0.0      ;
89690   14.04   1.1239767733030002      ;
89691   13.42   1.2310221802839003      ;
90476   14.82   0.0      ;
90523   12.52   2.863464636747      ;
90524   13.27   0.4549429796709      ;
90996   12.9   0.5084656831599      ;
91179   13.01   0.8028405523596      ;
91182   13.18   0.0      ;
91183   13.18   0.160568110472      ;
91256   12.41   0.40142027618      ;
91335   12.95   0.29437486919859995      ;
91336   13.43   2.8902259884912005      ;
91584   12.95   0.0      ;
91585   12.95   0.0      ;
92063   12.71   0.294374869198      ;
92504   12.67   0.0      ;
93085   13.97   1.0972154215579002      ;
93086   13.97   0.133806758727      ;
93306   12.72   0.9366473110860001      ;
93367   13.27   0.0      ;
93952   12.07   2.40852165708      ;
93953   12.07   0.0      ;
93967   13.16   0.8831246075939999      ;
94366   13.41   0.0      ;
94367   13.38   0.5619883866509999      ;
94435   12.55   0.6957951453775999      ;
94436   13.47   2.007101380899      ;
95113   14.73   0.267613517453      ;
95301   12.67   0.0      ;
95582   13.37   0.133806758727      ;
95710   12.72   0.40142027618      ;
96393   13.46   0.42818162792400005      ;
96394   13.29   2.1141467878799998      ;
96483   13.94   0.0      ;
96752   11.68   2.8099419332565      ;
96753   12.24   0.990170014576      ;
96845   12.72   0.588749738396      ;
97520   12.96   1.980340029152      ;
97708   12.88   2.408521657075      ;
97852   13.12   0.0      ;
97853   13.06   0.374658924434      ;
97958   12.58   0.588749738397      ;
97959   12.88   1.338067587265      ;
98363   13.73   2.6493738227879      ;
98364   13.73   0.0      ;
98776   13.13   0.0      ;
98798   12.27   0.535227034906      ;
98799   12.27   0.0      ;
99064   12.85   0.0      ;
99718   11.71   3.559259782124      ;
100024   13.3   0.0      ;
100246   12.65   0.6422724418870001      ;
100443   13.37   0.90988595934      ;
101082   13.04   0.240852165708      ;
101983   13.41   0.0      ;
102833   12.72   0.0      ;
103120   13.66   0.0      ;
103121   13.89   0.0      ;
103560   14.22   0.347897572689      ;
103561   14.22   0.0      ;
103603   13.59   0.133806758727      ;
103604   13.51   0.267613517453      ;
104482   12.9   0.0      ;
104485   13.24   0.0      ;
104486   13.22   15.9765269918979      ;
104781   12.86   0.160568110472      ;
104782   13.11   1.150738125048      ;
104850   13.11   2.5423284158049      ;
104851   13.58   0.0      ;
105240   13.01   0.347897572689      ;
105480   13.36   1.204260828538      ;
105551   14.06   0.0      ;
106139   12.74   0.0      ;
106416   13.06   0.133806758727      ;
106465   10.87   3.1578395059420004      ;
107143   13.38   3.800111947834      ;
107199   13.03   0.0      ;
107200   13.03   1.204260828539      ;
107478   14.15   4.9776114246260015      ;
107916   12.9   0.0      ;
107917   13.03   0.90988595934      ;
107960   13.17   1.6859651599548002      ;
108053   13.39   3.18460085769      ;
108417   12.84   1.846533270428      ;
108419   13.3   0.0      ;
108481   10.46   0.0      ;
108513   12.51   1.6324424564629998      ;
108514   12.51   0.0      ;
108522   13.38   0.374658924434      ;
108605   12.76   0.267613517453      ;
108749   14.25   0.240852165708      ;
108841   12.47   0.7760792006139999      ;
109307   11.88   6.931190102035      ;
109440   12.21   0.0      ;
109456   12.98   1.6056811047189998      ;
109601   13.66   0.7225564971230001      ;
109841   13.31   1.498635697737      ;
110036   12.65   2.515567064057      ;
110072   14.08   0.133806758727      ;
110133   13.3   2.354998953582      ;
110185   13.41   0.0      ;
110186   13.16   0.374658924434      ;
110331   12.72   0.401420276179      ;
111129   14.06   3.34516896816      ;
111470   14.55   0.0      ;
111597   14.44   0.0      ;
112198   12.48   0.6690337936330001      ;
112997   12.72   0.0      ;
113072   13.51   0.267613517453      ;
113474   12.79   0.428181627925      ;
113647   13.46   1.36482893901      ;
113799   13.5   0.615511090142      ;
113903   13.1   2.0071013808968003      ;
113913   12.41   0.374658924434      ;
114014   13.38   0.374658924434      ;
114021   13.46   0.0      ;
114038   13.87   0.9634086628308001      ;
114408   13.98   0.7493178488679999      ;
114553   10.82   0.187329462217      ;
[RESERVOIRS]
;ID   Head   Pattern  
76457   150      ;
76909   150      ;
88594   150      ;
93894   150      ;

[PIPES]
;ID   Node1   Node2   Length   Diameter   Roughness   Minorloss   Status   
PIPE-73760   72219   72220   33.131754756231764   8.0   130   0   Open   ;
PIPE-75737   72625   72626   285.08399620645463   8.0   130   0   Open   ;
PIPE-75738   72627   72628   5.190511881833597   8.0   130   0   Open   ;
PIPE-75789   72728   72729   194.08853714040526   8.0   130   0   Open   ;
PIPE-75823   72796   72797   5.237017042393779   8.0   130   0   Open   ;
PIPE-75831   72812   72627   22.079766236209764   8.0   130   0   Open   ;
PIPE-75865   72877   72878   252.33754198753223   8.0   130   0   Open   ;
PIPE-76225   73590   73591   179.40737209997894   8.0   130   0   Open   ;
PIPE-76280   73696   73697   64.70734463480356   8.0   130   0   Open   ;
PIPE-76528   74179   74180   24.917455498965047   8.0   130   0   Open   ;
PIPE-76739   74587   74588   186.9624990018669   8.0   130   0   Open   ;
PIPE-77012   75103   75104   6.7585644343874876   8.0   130   0   Open   ;
PIPE-77211   75483   75484   13.954687284092914   8.0   130   0   Open   ;
PIPE-77226   75513   72729   25.01140756298423   8.0   130   0   Open   ;
PIPE-77457   75949   75483   15.713246106049931   8.0   130   0   Open   ;
PIPE-77569   76154   76155   294.4091991943078   8.0   130   0   Open   ;
PIPE-77642   76287   76288   194.80755942704198   8.0   130   0   Open   ;
PIPE-77703   76402   76403   27.23856052635175   8.0   130   0   Open   ;
PIPE-77829   76637   76638   24.85942405285752   8.0   130   0   Open   ;
PIPE-77982   76908   76909   71.945454190457   8.0   130   0   Open   ;
PIPE-78226   77346   74179   224.48473593042863   8.0   130   0   Open   ;
PIPE-78272   77424   77425   3.2881526685294005   8.0   130   0   Open   ;
PIPE-78585   77988   77989   16.418353181805962   8.0   130   0   Open   ;
PIPE-78943   78624   78625   16.289139619717204   8.0   130   0   Open   ;
PIPE-79391   79398   79399   184.24325076823447   8.0   130   0   Open   ;
PIPE-79537   79639   79640   5.379373099517293   8.0   130   0   Open   ;
PIPE-79684   79883   79884   42.093487541409615   6.0   130   0   Open   ;
PIPE-79686   79640   79887   233.1175799740474   8.0   130   0   Open   ;
PIPE-79840   80156   80157   5.035510538685924   8.0   130   0   Open   ;
PIPE-79930   80313   79883   38.1172312632365   6.0   130   0   Open   ;
PIPE-80020   72878   80465   7.492285039857094   8.0   130   0   Open   ;
PIPE-80179   80728   72796   15.770281531298805   8.0   130   0   Open   ;
PIPE-80701   75513   81593   21.48765835452435   8.0   130   0   Open   ;
PIPE-80750   76155   81667   238.91909767327567   8.0   130   0   Open   ;
PIPE-80762   81689   81690   6.676265817244568   8.0   130   0   Open   ;
PIPE-80962   82006   82007   6.518194004285156   8.0   130   0   Open   ;
PIPE-81084   82207   82208   21.36278824854877   8.0   130   0   Open   ;
PIPE-81167   82332   82333   181.11848969944757   8.0   130   0   Open   ;
PIPE-81392   82679   82680   4.326184457409194   8.0   130   0   Open   ;
PIPE-82185   84032   72796   5.014569723810478   8.0   130   0   Open   ;
PIPE-82545   84625   84626   255.59943034439252   8.0   130   0   Open   ;
PIPE-82973   85299   85300   4.914298059410221   8.0   130   0   Open   ;
PIPE-82995   75104   85336   232.21955572793283   8.0   130   0   Open   ;
PIPE-83058   85426   85427   255.9521170567786   8.0   130   0   Open   ;
PIPE-83099   85492   85493   47.032377274759035   8.0   130   0   Open   ;
PIPE-83282   77989   80728   199.6995481473294   8.0   130   0   Open   ;
PIPE-83553   86133   86134   87.94755955553413   6.0   130   0   Open   ;
PIPE-83907   81690   86630   246.26743642646957   8.0   130   0   Open   ;
PIPE-84008   86776   86777   22.067519955531484   8.0   130   0   Open   ;
PIPE-84142   86947   86948   249.07046858075276   8.0   130   0   Open   ;
PIPE-84386   87275   87276   31.251580425474405   8.0   130   0   Open   ;
PIPE-84730   87700   87701   172.41435453215507   8.0   100   0   Open   ;
PIPE-84735   72220   76908   22.313927728119026   8.0   130   0   Open   ;
PIPE-84960   87990   87991   409.28271408828033   8.0   130   0   Open   ;
PIPE-84999   88042   88043   16.248125787677036   8.0   130   0   Open   ;
PIPE-85461   88577   88578   273.0956568047208   8.0   130   0   Open   ;
PIPE-85958   89128   76457   453.15362162410065   8.0   100   0   Open   ;
PIPE-86169   87991   89333   8.831510974864916   8.0   130   0   Open   ;
PIPE-86500   89690   89691   138.718789224737   8.0   130   0   Open   ;
PIPE-87350   90476   87275   20.27801668868032   8.0   130   0   Open   ;
PIPE-87398   90523   90524   22.025977137047768   8.0   130   0   Open   ;
PIPE-87977   77988   90996   5.096505873390084   8.0   130   0   Open   ;
PIPE-88197   72797   91179   19.80486273135436   8.0   130   0   Open   ;
PIPE-88200   91182   91183   5.0999202392214285   8.0   130   0   Open   ;
PIPE-88275   79884   91256   4.985232333075632   6.0   130   0   Open   ;
PIPE-88376   91335   91336   243.65719689666167   8.0   130   0   Open   ;
PIPE-88640   91584   91585   0.901223636387398   8.0   130   0   Open   ;
PIPE-88971   92063   75513   32.63791589415896   8.0   130   0   Open   ;
PIPE-89259   73591   92504   5.274753304338229   8.0   130   0   Open   ;
PIPE-89693   93085   93086   11.125185990138466   8.0   130   0   Open   ;
PIPE-89874   93306   79639   22.562148053610407   8.0   130   0   Open   ;
PIPE-89928   79399   93367   20.428926303814173   8.0   130   0   Open   ;
PIPE-90461   93952   93953   5.183312826733209   12.0   130   0   Open   ;
PIPE-90470   91256   93967   204.3878502972784   8.0   130   0   Open   ;
PIPE-90872   94366   94367   16.708182030433992   8.0   130   0   Open   ;
PIPE-90945   94435   94436   288.7315099073295   8.0   130   0   Open   ;
PIPE-91463   73697   76287   5.337415402129152   8.0   130   0   Open   ;
PIPE-91735   77425   95113   118.0679051924958   6.0   130   0   Open   ;
PIPE-91893   92504   95301   0.009731367457494216   8.0   130   0   Open   ;
PIPE-92103   95582   72625   68.02756951989646   8.0   130   0   Open   ;
PIPE-92189   95710   80156   5.151221073418126   8.0   130   0   Open   ;
PIPE-92632   96393   96394   263.197224558217   8.0   130   0   Open   ;
PIPE-92690   76288   96483   4.8149973611967525   8.0   130   0   Open   ;
PIPE-92864   96752   96753   358.2382070838159   8.0   130   0   Open   ;
PIPE-92924   76403   96845   172.1308523070787   8.0   130   0   Open   ;
PIPE-93398   97520   95710   245.9349121425556   8.0   130   0   Open   ;
PIPE-93545   72626   97708   106.70284796138084   8.0   130   0   Open   ;
PIPE-93650   97852   97853   102.30867305372558   8.0   130   0   Open   ;
PIPE-93692   74180   91585   5.279516165660707   8.0   130   0   Open   ;
PIPE-93726   97958   97959   176.05515354327085   8.0   130   0   Open   ;
PIPE-94016   98363   98364   7.809769026869723   8.0   130   0   Open   ;
PIPE-94318   98776   77988   4.769348713511828   8.0   130   0   Open   ;
PIPE-94338   98798   98799   10.103283697487287   8.0   130   0   Open   ;
PIPE-94549   99064   93952   94.35710907943516   12.0   130   0   Open   ;
PIPE-95071   99718   72728   220.3590739379104   8.0   130   0   Open   ;
PIPE-95326   100024   74587   36.913463440943936   8.0   130   0   Open   ;
PIPE-95517   96483   100246   314.1552403696536   8.0   130   0   Open   ;
PIPE-95695   95582   100443   4.764715913918452   8.0   130   0   Open   ;
PIPE-96280   101082   86133   38.63254958074123   6.0   130   0   Open   ;
PIPE-97200   101983   95582   104.38368814217272   8.0   130   0   Open   ;
PIPE-98087   102833   76402   15.750144019722939   8.0   130   0   Open   ;
PIPE-98432   103120   103121   63.087740482034434   8.0   130   0   Open   ;
PIPE-98565   79398   101082   5.006443455193061   6.0   130   0   Open   ;
PIPE-98860   81667   72812   4.9388075537390606   8.0   130   0   Open   ;
PIPE-98980   103560   103561   4.9926075344572745   8.0   130   0   Open   ;
PIPE-99030   103603   103604   192.48877045119642   8.0   130   0   Open   ;
PIPE-100135   103604   90524   24.90851414712852   8.0   130   0   Open   ;
PIPE-100198   79639   104482   6.427442117032608   8.0   130   0   Open   ;
PIPE-100203   104485   104486   17.704893475749664   8.0   130   0   Open   ;
PIPE-100629   80156   99064   16.00780960922098   8.0   130   0   Open   ;
PIPE-100691   104781   104782   152.1742361751649   6.0   130   0   Open   ;
PIPE-100802   104850   104851   19.96493081712269   8.0   130   0   Open   ;
PIPE-101433   105240   104851   22.184834359669143   8.0   130   0   Open   ;
PIPE-101854   104482   105480   34.16063432875364   8.0   130   0   Open   ;
PIPE-101996   105551   82207   30.918503543560213   8.0   130   0   Open   ;
PIPE-102342   103121   96483   40.84700380787906   8.0   130   0   Open   ;
PIPE-102744   106139   88577   17.019835206544982   8.0   130   0   Open   ;
PIPE-103096   86948   88043   5.098035619090834   8.0   130   0   Open   ;
PIPE-103100   106416   92063   109.21876824994732   8.0   130   0   Open   ;
PIPE-103157   106465   77346   241.9379257366213   8.0   130   0   Open   ;
PIPE-103974   97708   73696   60.033319875914145   8.0   130   0   Open   ;
PIPE-104004   72627   107143   5.52885500174057   8.0   130   0   Open   ;
PIPE-104086   107199   107200   24.3223402953044   8.0   130   0   Open   ;
PIPE-104441   86777   107478   294.34960671127214   8.0   130   0   Open   ;
PIPE-104559   80157   96752   357.5842433575692   8.0   130   0   Open   ;
PIPE-105014   107916   107917   266.38549391088173   8.0   130   0   Open   ;
PIPE-105069   86947   107960   152.15680828280398   8.0   130   0   Open   ;
PIPE-105204   108053   105551   103.53450348981657   8.0   130   0   Open   ;
PIPE-105728   90996   108417   230.01534532397392   8.0   130   0   Open   ;
PIPE-105731   108419   100024   5.246157381258828   8.0   130   0   Open   ;
PIPE-105781   94366   101983   5.189506853420378   8.0   130   0   Open   ;
PIPE-105829   108481   103603   39.02864982825547   8.0   130   0   Open   ;
PIPE-105844   87700   85493   31.01619502649941   8.0   130   0   Open   ;
PIPE-105877   108513   108514   8.866977248228508   8.0   130   0   Open   ;
PIPE-105892   104851   108522   38.2450427685721   8.0   130   0   Open   ;
PIPE-105980   90524   104850   224.2010036798537   8.0   130   0   Open   ;
PIPE-105998   75513   108605   37.62049906348485   8.0   100   0   Open   ;
PIPE-106216   108749   86776   4.942960929616016   8.0   130   0   Open   ;
PIPE-106260   72220   94435   39.919254420021545   8.0   130   0   Open   ;
PIPE-106353   91182   108841   28.767472693169264   8.0   130   0   Open   ;
PIPE-106467   98364   77424   22.191769187106498   8.0   130   0   Open   ;
PIPE-106505   97959   107199   33.4350585024012   8.0   130   0   Open   ;
PIPE-106571   93967   91182   38.778821186006276   8.0   130   0   Open   ;
PIPE-106614   107200   72219   167.43806462700783   8.0   130   0   Open   ;
PIPE-106664   88043   82679   23.19202104492723   8.0   130   0   Open   ;
PIPE-106701   91179   97520   201.56722621954887   8.0   130   0   Open   ;
PIPE-107076   109307   85336   32.57849449245364   8.0   130   0   Open   ;
PIPE-107294   109440   84625   6.246925743869026   8.0   130   0   Open   ;
PIPE-107313   96394   98363   198.12177922024102   8.0   130   0   Open   ;
PIPE-107324   108605   109456   290.73663539657935   8.0   100   0   Open   ;
PIPE-107529   108749   109601   126.64593133736936   8.0   130   0   Open   ;
PIPE-107928   109841   105240   213.9770565121798   8.0   130   0   Open   ;
PIPE-108169   82333   98776   19.950675979962245   8.0   130   0   Open   ;
PIPE-108227   107478   75949   328.6945537951214   8.0   130   0   Open   ;
PIPE-108250   91183   110036   266.0843225088144   8.0   130   0   Open   ;
PIPE-108299   89691   110072   232.5063542422282   8.0   130   0   Open   ;
PIPE-108401   108481   110133   79.61258068785514   8.0   130   0   Open   ;
PIPE-108461   97852   106139   6.963945347169951   8.0   130   0   Open   ;
PIPE-108469   107143   89690   250.63820671931774   8.0   130   0   Open   ;
PIPE-108503   110185   110186   115.8189820232782   6.0   130   0   Open   ;
PIPE-108615   95301   107199   34.743883329848835   8.0   130   0   Open   ;
PIPE-108753   110331   82332   264.1612223413821   8.0   130   0   Open   ;
PIPE-109075   102833   110331   5.313449897009148   8.0   130   0   Open   ;
PIPE-109424   110133   76287   40.97163774515073   8.0   130   0   Open   ;
PIPE-109622   108417   76637   237.0633064834076   8.0   130   0   Open   ;
PIPE-110362   94367   111129   212.62808142597888   8.0   130   0   Open   ;
PIPE-110496   94436   82680   242.21727361096333   8.0   130   0   Open   ;
PIPE-111179   85299   111470   99.12598731639022   8.0   130   0   Open   ;
PIPE-111480   89333   111597   380.3795828699771   8.0   130   0   Open   ;
PIPE-111532   93367   94366   15.972612330483011   8.0   130   0   Open   ;
PIPE-111597   76638   78624   5.287993227281515   8.0   130   0   Open   ;
PIPE-111703   111470   90476   5.424165757881711   8.0   130   0   Open   ;
PIPE-112499   112198   108841   206.77972958106747   8.0   130   0   Open   ;
PIPE-112533   87701   89128   304.7156198300218   8.0   100   0   Open   ;
PIPE-112635   108419   106465   16.04297075008512   8.0   130   0   Open   ;
PIPE-112669   108522   77424   188.8959468262413   8.0   130   0   Open   ;
PIPE-112696   109456   104486   246.52664355910736   8.0   100   0   Open   ;
PIPE-112745   82006   85336   32.015619217976564   8.0   130   0   Open   ;
PIPE-112756   85493   87990   55.471445902161605   8.0   130   0   Open   ;
PIPE-112881   104482   107916   5.174651072548978   8.0   130   0   Open   ;
PIPE-112975   79887   72877   202.7846521095617   8.0   130   0   Open   ;
PIPE-112978   84626   108513   325.9773802416683   8.0   130   0   Open   ;
PIPE-113797   96845   112997   11.936455782366966   8.0   130   0   Open   ;
PIPE-113883   74588   77988   16.043064486502036   8.0   130   0   Open   ;
PIPE-113942   82208   113072   1.7557908226378305   8.0   130   0   Open   ;
PIPE-114559   107960   113072   187.5641613258595   8.0   130   0   Open   ;
PIPE-114564   105480   102833   212.3786404697885   8.0   130   0   Open   ;
PIPE-114832   85427   102833   2.151733373118595   8.0   130   0   Open   ;
PIPE-114896   85492   108481   106.566092772653   8.0   130   0   Open   ;
PIPE-114991   91336   90523   213.62740101004303   8.0   130   0   Open   ;
PIPE-115136   78624   113474   5.006443454448628   8.0   130   0   Open   ;
PIPE-115661   103561   110072   18.019428201369816   8.0   130   0   Open   ;
PIPE-115719   78625   113647   183.04375317562832   8.0   130   0   Open   ;
PIPE-115758   113474   109841   254.66815096135707   8.0   130   0   Open   ;
PIPE-115816   110036   85426   209.2055892132612   8.0   130   0   Open   ;
PIPE-116083   81593   97958   7.9236066385173665   8.0   130   0   Open   ;
PIPE-116168   107199   76154   37.548777354057435   8.0   130   0   Open   ;
PIPE-116223   93953   93894   54.916307063382575   12.0   130   0   Open   ;
PIPE-116246   100443   113799   333.9567048339855   8.0   130   0   Open   ;
PIPE-116601   108514   72220   34.168938903006236   8.0   130   0   Open   ;
PIPE-116637   113903   84032   234.78231108849548   8.0   130   0   Open   ;
PIPE-116646   85300   113903   257.0603014685988   8.0   130   0   Open   ;
PIPE-116692   75103   113913   7.5692738440649405   8.0   130   0   Open   ;
PIPE-116881   91585   78624   243.6688651180005   8.0   130   0   Open   ;
PIPE-116898   72628   88042   203.72179568975392   8.0   130   0   Open   ;
PIPE-116978   88578   109307   256.2274688637212   8.0   130   0   Open   ;
PIPE-117016   97853   106416   13.509414803328132   8.0   130   0   Open   ;
PIPE-117131   82007   80465   217.8791668858976   8.0   130   0   Open   ;
PIPE-117157   114014   72627   5.036405061322301   8.0   130   0   Open   ;
PIPE-117211   113647   114021   12.003006638584894   8.0   130   0   Open   ;
PIPE-117309   103560   114038   209.87286041205448   8.0   130   0   Open   ;
PIPE-117582   113913   99718   189.12416472905045   8.0   130   0   Open   ;
PIPE-117593   96393   85299   5.006443454448628   8.0   130   0   Open   ;
PIPE-117918   114021   85299   16.073185790555005   8.0   130   0   Open   ;
PIPE-117976   100246   91584   16.750235923943162   8.0   130   0   Open   ;
PIPE-117994   109601   103120   27.06481171869207   8.0   130   0   Open   ;
PIPE-118005   107917   108419   253.86599577916544   8.0   130   0   Open   ;
PIPE-118248   91584   91335   6.005327971593776   8.0   130   0   Open   ;
PIPE-118292   94366   110185   4.9999359995126715   8.0   130   0   Open   ;
PIPE-118325   114408   93085   181.52369666320038   8.0   130   0   Open   ;
PIPE-118627   114553   80313   1.8555680428404828   6.0   130   0   Open   ;
PIPE-118711   75103   98798   196.89654511620162   8.0   130   0   Open   ;
PIPE-119006   86630   73590   163.60823415942076   8.0   130   0   Open   ;
PIPE-119614   93306   97852   270.1200185383566   8.0   130   0   Open   ;
PIPE-119658   75484   114014   204.19712949240002   8.0   130   0   Open   ;
PIPE-119928   111597   88594   29.15136634402115   8.0   130   0   Open   ;
PIPE-120082   101082   104781   8.687775298206173   6.0   130   0   Open   ;
PIPE-120179   96753   91256   16.127631841019266   8.0   130   0   Open   ;
PIPE-189743   105551   114408   16.318480340484268   8.0   130   0   Open   ;
PIPE-189744   111129   105551   4.820104863162718   8.0   130   0   Open   ;
PIPE-191141   75949   104485   5.307398140525331   8.0   130   0   Open   ;
PIPE-191159   80465   112198   9.954509676785019   8.0   130   0   Open   ;
PIPE-191342   93086   103560   16.101679532053982   8.0   130   0   Open   ;
PIPE-191424   114038   108749   29.046662713067327   8.0   130   0   Open   ;
PIPE-192635   112997   80156   15.93689979044633   8.0   130   0   Open   ;

[PUMPS]
;ID   Node1   Node2   Parameters   

[CURVES]
;ID   X-Value   Y-Value   
[VALVES]
;ID              	Node1           	Node2           	Diameter    	Type	Setting     	MinorLoss

[TAGS]

[DEMANDS]
;Junction        	Demand      	Pattern         	Category

[STATUS]
;ID              	Status/Setting

[PATTERNS]
;ID              	Multipliers

[CONTROLS]



[RULES]


[ENERGY]
 Global Efficiency  	75
 Global Price       	0.0
 Demand Charge      	0.0

[EMITTERS]
;Junction        	Coefficient

[QUALITY]
;Node            	InitQual

[SOURCES]
;Node            	Type        	Quality     	Pattern

[REACTIONS]
;Type     	Pipe/Tank       	Coefficient


[REACTIONS]
 Order Bulk            	1
 Order Tank            	1
 Order Wall            	1
 Global Bulk           	-.5
 Global Wall           	-1
 Limiting Potential    	0.0
 Roughness Correlation 	0.0

[MIXING]
;Tank            	Model

[TIMES]
 Duration           	0:30
 Hydraulic Timestep 	1:00
 Quality Timestep   	0:05
 Pattern Timestep   	2:00
 Pattern Start      	0:00
 Report Timestep    	1:00
 Report Start       	0:00
 Start ClockTime    	12 am
 Statistic          	NONE

[REPORT]
 Status             	Yes
 Summary            	No
 Page               	0

[OPTIONS]
 Units              	GPM
 Headloss           	H-W
 Specific Gravity   	1.0
 Viscosity          	1.0
 Trials             	40
 Accuracy           	0.001
 CHECKFREQ          	2
 MAXCHECK           	10
 DAMPLIMIT          	0
 Unbalanced         	Continue 10
 Pattern            	1
 Demand Multiplier  	1.0
 Emitter Exponent   	0.5
 Quality            	Chlorine mg/L
 Diffusivity        	1.0
 Tolerance          	0.01

[COORDINATES]
;Node            	X-Coord         	Y-Coord


[VERTICES]
;Link            	X-Coord         	Y-Coord

[LABELS]
;X-Coord           Y-Coord          Label & Anchor Node
             

[BACKDROP]
 DIMENSIONS     	7.00            	6.00            	73.00           	94.00           
 UNITS          	None
 FILE           	
 OFFSET         	0.00            	0.00            

[END]