; Filename: data/RoundHill.inp
; WNTR: 0.3.0
; Created: 2020-11-23 15:09:10
[TITLE]

[JUNCTIONS]
;ID                      Elevation       Demand Pattern                 
 J-F7D-1                   868.640015        1.243768                            ;
 J-F7D-10                  648.440002        0.176128                            ;
 J-F7D-100                 779.190002        0.447242                            ;
 J-F7D-101                 786.299988               0                            ;
 J-F7D-102                 975.580017               0                            ;
 J-F7D-103                 976.080017               0                            ;
 J-F7D-104                 957.210022               0                            ;
 J-F7D-105                 791.080017               0                            ;
 J-F7D-106                 790.960022        2.098763                            ;
 J-F7D-107                 855.549988        0.376014                            ;
 J-F7D-108                 793.859985        0.261282                            ;
 J-F7D-109                 955.289978               0                            ;
 J-F7D-11                  606.690002        0.193537                            ;
 J-F7D-110                 740.099976        1.762811                            ;
 J-F7D-111                 760.159973               0                            ;
 J-F7D-112                 657.590027         0.06429                            ;
 J-F7D-113                  826.52002        0.123412                            ;
 J-F7D-114                 676.119995         0.36395                            ;
 J-F7D-115                 677.940002        0.046789                            ;
 J-F7D-116                  938.02002         1.13672                            ;
 J-F7D-117                 889.429993               0                            ;
 J-F7D-118                 978.080017               0                            ;
 J-F7D-119                 837.169983        1.338819                            ;
 J-F7D-12                   868.98999               0                            ;
 J-F7D-120                 941.789978        0.188425                            ;
 J-F7D-121                 822.559998        0.218503                            ;
 J-F7D-122                 760.049988        0.153395                            ;
 J-F7D-123                  950.27002        0.597213                            ;
 J-F7D-124                 948.280029        0.729061                            ;
 J-F7D-125                 811.109985        1.379226                            ;
 J-F7D-126                 760.169983               0                            ;
 J-F7D-127                 972.960022        0.676077                            ;
 J-F7D-128                     979.25               0                            ;
 J-F7D-13                  777.469971        0.035908                            ;
 J-F7D-133                  942.23999        1.265963                            ;
 J-F7D-14                  801.849976        0.333757                            ;
 J-F7D-142                 942.080017               0                            ;
 J-F7D-143                 913.130005        0.684692                            ;
 J-F7D-144                  893.52002        0.075311                            ;
 J-F7D-145                 976.619995        0.230834                            ;
 J-F7D-146                 965.090027         1.13183                            ;
 J-F7D-147                 828.070007        0.711613                            ;
 J-F7D-148                 812.200012        1.629596                            ;
 J-F7D-149                 821.650024               0                            ;
 J-F7D-15                  692.150024               0                            ;
 J-F7D-150                 822.559998               0                            ;
 J-F7D-151                  864.98999        0.041419                            ;
 J-F7D-152                 857.880005        0.420738                            ;
 J-F7D-153                 680.869995        0.155135                            ;
 J-F7D-154                 734.169983        0.763928                            ;
 J-F7D-155                 957.190002         1.15807                            ;
 J-F7D-156                 976.590027        0.875085                            ;
 J-F7D-157                  841.52002        0.801281                            ;
 J-F7D-158                 823.210022        0.872478                            ;
 J-F7D-159                 881.190002               0                            ;
 J-F7D-16                  690.830017               0                            ;
 J-F7D-160                 881.679993        0.402176                            ;
 J-F7D-161                 804.919983        1.397715                            ;
 J-F7D-162                 806.130005         0.41908                            ;
 J-F7D-163                 679.840027               0                            ;
 J-F7D-164                 679.679993        0.027403                            ;
 J-F7D-165                 823.320007               0                            ;
 J-F7D-166                        784               0                            ;
 J-F7D-167                 779.599976               0                            ;
 J-F7D-168                 631.780029        1.499195                            ;
 J-F7D-169                 632.659973               0                            ;
 J-F7D-17                  423.549988               0                            ;
 J-F7D-170                 890.280029        0.976413                            ;
 J-F7D-171                 855.549988        0.163223                            ;
 J-F7D-172                  721.01001        1.407671                            ;
 J-F7D-173                 659.599976               0                            ;
 J-F7D-18                  679.210022               0                            ;
 J-F7D-19                  689.119995               0                            ;
 J-F7D-2                    658.23999               0                            ;
 J-F7D-20                  689.119995        0.281128                            ;
 J-F7D-21                  846.179993        0.859783                            ;
 J-F7D-22                      801.75        0.701486                            ;
 J-F7D-23                  560.530029               0                            ;
 J-F7D-24                  938.609985        0.367686                            ;
 J-F7D-25                  952.380005        0.751026                            ;
 J-F7D-26                       818.5        0.311963                            ;
 J-F7D-27                   811.27002        0.637969                            ;
 J-F7D-28                  733.640015               0                            ;
 J-F7D-29                  734.049988        0.215532                            ;
 J-F7D-3                   864.369995        1.618316                            ;
 J-F7D-30                  952.169983        0.371018                            ;
 J-F7D-31                  945.210022        0.450458                            ;
 J-F7D-32                  798.169983               0                            ;
 J-F7D-33                  644.580017               0                            ;
 J-F7D-34                  561.549988               0                            ;
 J-F7D-35                  644.650024               0                            ;
 J-F7D-36                  657.969971               0                            ;
 J-F7D-37                  658.099976               0                            ;
 J-F7D-38                  707.640015        0.116974                            ;
 J-F7D-39                  760.119995               0                            ;
 J-F7D-4                   869.070007         0.34935                            ;
 J-F7D-40                  559.460022         0.72579                            ;
 J-F7D-41                  652.469971        3.327574                            ;
 J-F7D-42                  820.630005        0.128952                            ;
 J-F7D-43                   649.48999               0                            ;
 J-F7D-44                   793.02002        1.798685                            ;
 J-F7D-45                  759.669983               0                            ;
 J-F7D-46                  793.140015               0                            ;
 J-F7D-47                  828.169983        0.186759                            ;
 J-F7D-48                  801.099976        0.647019                            ;
 J-F7D-49                   841.47998        0.071803                            ;
 J-F7D-5                   891.849976        0.521701                            ;
 J-F7D-50                  636.159973               0                            ;
 J-F7D-51                  831.359985        1.161928                            ;
 J-F7D-52                   891.01001        0.102221                            ;
 J-F7D-53                  890.869995         0.26331                            ;
 J-F7D-54                  845.179993        0.154311                            ;
 J-F7D-55                  889.549988        0.523855                            ;
 J-F7D-56                   760.52002        0.209907                            ;
 J-F7D-57                  581.330017               0                            ;
 J-F7D-58                  630.380005               0                            ;
 J-F7D-59                  605.940002               0                            ;
 J-F7D-6                   979.559998               0                            ;
 J-F7D-60                  731.630005               0                            ;
 J-F7D-61                   689.77002               0                            ;
 J-F7D-62                  891.390015        0.157697                            ;
 J-F7D-63                         785               0                            ;
 J-F7D-64                  759.960022        0.115321                            ;
 J-F7D-65                  796.530029               0                            ;
 J-F7D-66                  805.809998               0                            ;
 J-F7D-67                  822.719971               0                            ;
 J-F7D-68                   928.02002        1.244733                            ;
 J-F7D-69                  954.460022        0.326341                            ;
 J-F7D-7                    978.26001               0                            ;
 J-F7D-70                  759.200012        0.292615                            ;
 J-F7D-71                  823.460022        0.948626                            ;
 J-F7D-72                   824.98999        0.373141                            ;
 J-F7D-73                  826.140015               0                            ;
 J-F7D-74                  826.530029        1.415763                            ;
 J-F7D-75                  760.059998               0                            ;
 J-F7D-76                  779.030029        2.460243                            ;
 J-F7D-77                  787.159973        0.668729                            ;
 J-F7D-78                  822.080017               0                            ;
 J-F7D-79                  666.700012        0.443157                            ;
 J-F7D-8                    560.26001               0                            ;
 J-F7D-80                  676.059998        0.008655                            ;
 J-F7D-81                  793.359985        0.872819                            ;
 J-F7D-82                  793.700012               0                            ;
 J-F7D-83                  845.179993        1.038898                            ;
 J-F7D-84                  823.309998        0.953184                            ;
 J-F7D-85                   649.23999               0                            ;
 J-F7D-86                      891.75               0                            ;
 J-F7D-87                  779.830017        0.097714                            ;
 J-F7D-88                      420.37               0                            ;
 J-F7D-89                      759.75               0                            ;
 J-F7D-9                   750.549988        0.156537                            ;
 J-F7D-90                  692.190002               0                            ;
 J-F7D-91                  945.669983               0                            ;
 J-F7D-92                  942.090027               0                            ;
 J-F7D-93                  827.919983        0.158334                            ;
 J-F7D-94                  836.719971        0.615679                            ;
 J-F7D-95                  761.179993        0.374635                            ;
 J-F7D-96                   892.98999               0                            ;
 J-F7D-97                  654.849976        0.694855                            ;
 J-F7D-98                  679.390015        0.208769                            ;
 J-F7D-99                  976.190002               0                            ;

[RESERVOIRS]
;ID                                   Head                  Pattern
 ROUND_HILL_FGN                 997.9                            ;

[TANKS]
;ID                              Elevation           Init Level            Min Level            Max Level             Diameter           Min Volume Volume Curve         Overflow            

[PIPES]
;ID                   Node1                Node2                              Length             Diameter            Roughness           Minor Loss               Status
 101860               J-F7D-101            J-F7D-63                    8.341959               8             130               0                 Open   ;
 13813                J-F7D-47             J-F7D-93                    33.88527               8             130               0                 Open   ;
 13814                J-F7D-94             J-F7D-3                   328.478423               8             130               0                 Open   ;
 13815                J-F7D-147            J-F7D-47                   14.311387               6             130               0                 Open   ;
 13817                J-F7D-43             J-F7D-35                   16.918893              12             130               0                 Open   ;
 14358                J-F7D-81             J-F7D-82                   10.583641               8             130               0                 Open   ;
 14437                J-F7D-10             J-F7D-11                   566.22483               6             130               0                 Open   ;
 14438                J-F7D-59             J-F7D-168                  414.21062               6             130               0                 Open   ;
 14439                J-F7D-60             J-F7D-173                 376.828251               6             130               0                 Open   ;
 14440                J-F7D-28             J-F7D-29                    2.506155               6             130               0                 Open   ;
 14441                J-F7D-2              J-F7D-10                   58.193972               6             130               0                 Open   ;
 14442                J-F7D-51             J-F7D-26                  189.701142               6             130               0                 Open   ;
 14444                J-F7D-10             J-F7D-85                      4.1003               6             130               0                 Open   ;
 14445                J-F7D-77             J-F7D-161                 186.440086               8             130               0                 Open   ;
 14446                J-F7D-147            J-F7D-148                 289.897149               6             130               0                 Open   ;
 14447                J-F7D-161            J-F7D-162                  10.887046               8             130               0                 Open   ;
 2034654              J-F7D-88             J-F7D-17                   34.680734               8             130               0                 Open   ;
 2034797              J-F7D-17             J-F7D-18                 1332.720486              12             130               0                 Open   ;
 2167291              J-F7D-89             J-F7D-100                 154.037626               8             130               0                 Open   ;
 2168021              J-F7D-3              J-F7D-4                   281.221803               8             130               0                 Open   ;
 2168216              J-F7D-157            J-F7D-158                 440.422701               6             130               0                 Open   ;
 2168494              J-F7D-112            J-F7D-36                   15.073903               8             130               0                 Open   ;
 2168513              J-F7D-66             J-F7D-101                 464.917812               8             130               0                 Open   ;
 2169164              J-F7D-126            J-F7D-95                   11.975885               8             130               0                 Open   ;
 2169384              J-F7D-72             J-F7D-73                   20.692012               8             130               0                 Open   ;
 2169526              J-F7D-63             J-F7D-166                  15.698321               8             130               0                 Open   ;
 2169677              J-F7D-117            J-F7D-53                    27.89816               8             130               0                 Open   ;
 2170367              J-F7D-103            J-F7D-99                    1.880743               8             130               0                 Open   ;
 2170453              J-F7D-13             J-F7D-14                  254.478874               8             130               0                 Open   ;
 2170616              J-F7D-60             J-F7D-28                     8.75488               6             130               0                 Open   ;
 2170648              J-F7D-36             J-F7D-37                    4.800753               8             130               0                 Open   ;
 2171540              J-F7D-104            J-F7D-155                  19.091928               8             130               0                 Open   ;
 2171943              J-F7D-41             J-F7D-112                 432.196218               8             130               0                 Open   ;
 2172038              J-F7D-95             J-F7D-87                  192.020018               8             130               0                 Open   ;
 2172348              J-F7D-127            J-F7D-102                  52.243458               8             130               0                 Open   ;
 2172442              J-F7D-164            J-F7D-172                 436.139558               8             130               0                 Open   ;
 2172548              J-F7D-27             J-F7D-125                   14.49579               6             130               0                 Open   ;
 2172882              J-F7D-93             J-F7D-94                  222.326081               8             130               0                 Open   ;
 2172954              J-F7D-152            J-F7D-49                  429.192569               6             130               0                 Open   ;
 2173345              J-F7D-82             J-F7D-44                    7.171643               8             130               0                 Open   ;
 2173807              J-F7D-24             J-F7D-25                  318.913628              12             130               0                 Open   ;
 2173844              J-F7D-45             J-F7D-56                   13.419327               8             130               0                 Open   ;
 2174319              J-F7D-153            J-F7D-154                 299.542116               8             130               0                 Open   ;
 2174588              J-F7D-121            J-F7D-150                   0.707062               8             130               0                 Open   ;
 2174807              J-F7D-80             J-F7D-153                  60.815126               8             130               0                 Open   ;
 2175466              J-F7D-16             J-F7D-61                    4.495697               8             130               0                 Open   ;
 2175553              J-F7D-56             J-F7D-42                  436.054646               8             130               0                 Open   ;
 2176313              J-F7D-116            J-F7D-133                 397.586951               8             130               0                 Open   ;
 2177131              J-F7D-76             J-F7D-77                   171.25828               8             130               0                 Open   ;
 2177157              J-F7D-32             J-F7D-14                   78.305744               8             130               0                 Open   ;
 2177258              J-F7D-168            J-F7D-169                    7.84932               6             130               0                 Open   ;
 2177296              J-F7D-110            J-F7D-122                 396.941485               6             130               0                 Open   ;
 2177573              J-F7D-111            J-F7D-122                  10.544912               6             130               0                 Open   ;
 2178040              J-F7D-11             J-F7D-59                    8.533232               6             130               0                 Open   ;
 2178214              J-F7D-154            J-F7D-70                    165.0009               8             130               0                 Open   ;
 2178419              J-F7D-52             J-F7D-53                    5.148085               6             130               0                 Open   ;
 2178430              J-F7D-18             J-F7D-163                  12.553579              12             130               0                 Open   ;
 2178812              J-F7D-106            J-F7D-110                 426.744953               6             130               0                 Open   ;
 2179416              J-F7D-7              J-F7D-118                    9.94361              16             130               0                 Open   ;
 2179573              J-F7D-166            J-F7D-167                  12.416284               8             130               0                 Open   ;
 2179709              J-F7D-33             J-F7D-35                   10.273216               6             130               0                 Open   ;
 2179739              J-F7D-54             J-F7D-83                    0.250112               8             130               0                 Open   ;
 2179982              J-F7D-85             J-F7D-43                    6.562226               6             130               0                 Open   ;
 2180156              J-F7D-108            J-F7D-32                  151.756766               8             130               0                 Open   ;
 2180752              J-F7D-26             J-F7D-27                  178.894739               6             130               0                 Open   ;
 2180756              J-F7D-162            J-F7D-47                  302.048775               8             130               0                 Open   ;
 2181592              J-F7D-173            J-F7D-2                     8.204174               6             130               0                 Open   ;
 2181764              J-F7D-40             J-F7D-41                  796.538653               8             130               0                 Open   ;
 2182239              J-F7D-118            J-F7D-91                   264.31593              16             130               0                 Open   ;
 2182821              J-F7D-172            J-F7D-9                     370.1477               8             130               0                 Open   ;
 2183019              J-F7D-163            J-F7D-164                   2.833369              12             130               0                 Open   ;
 2183065              J-F7D-98             J-F7D-19                  267.303151               6             130               0                 Open   ;
 2184238              J-F7D-100            J-F7D-108                 374.163088               8             130               0                 Open   ;
 2184289              J-F7D-171            J-F7D-107                    1.78053               8             130               0                 Open   ;
 2185270              J-F7D-1              J-F7D-12                   18.657305               8             130               0                 Open   ;
 2185326              J-F7D-144            J-F7D-96                    7.763961               8             130               0                 Open   ;
 2185875              J-F7D-67             J-F7D-78                   16.555232               8             130               0                 Open   ;
 2186380              J-F7D-9              J-F7D-89                  131.473486               8             130               0                 Open   ;
 2186400              J-F7D-146            J-F7D-25                  137.985926              12             130               0                 Open   ;
 2187309              J-F7D-46             J-F7D-65                  121.281851               8             130               0                 Open   ;
 2187475              J-F7D-123            J-F7D-124                  24.519984               6             130               0                 Open   ;
 2188355              J-F7D-38             J-F7D-64                  366.143354               8             130               0                 Open   ;
 2188499              J-F7D-22             J-F7D-48                    5.885703               6             130               0                 Open   ;
 2188999              J-F7D-21             J-F7D-22                  380.600181               6             130               0                 Open   ;
 2254665              J-F7D-6              J-F7D-128                  44.551606              16             130               0                 Open   ;
 2280310              J-F7D-115            J-F7D-164                  75.754637               8             130               0                 Open   ;
 2335757              J-F7D-52             J-F7D-21                  284.829547               6             130               0                 Open   ;
 58645                J-F7D-57             J-F7D-58                  272.241291              12             130               0                 Open   ;
 61731                J-F7D-44             J-F7D-46                    5.004154               8             130               0                 Open   ;
 61732                J-F7D-65             J-F7D-66                  151.314659               8             130               0                 Open   ;
 61733                J-F7D-70             J-F7D-126                   12.78406               8             130               0                 Open   ;
 61734                J-F7D-79             J-F7D-80                  183.923151               8             130               0                 Open   ;
 64866                J-F7D-58             J-F7D-50                   16.446968              12             130               0                 Open   ;
 64867                J-F7D-35             J-F7D-50                   17.001682              12             130               0                 Open   ;
 66685                J-F7D-44             J-F7D-76                  296.912254               8             130               0                 Open   ;
 87303                J-F7D-87             J-F7D-13                    9.338916               8             130               0                 Open   ;
 87304                J-F7D-114            J-F7D-115                  39.587993               8             130               0                 Open   ;
 8913                 J-F7D-30             J-F7D-31                  149.553706               6             130               0                 Open   ;
 8914                 J-F7D-109            J-F7D-30                   42.074363               8             130               0                 Open   ;
 8915                 J-F7D-68             J-F7D-69                  230.241431               6             130               0                 Open   ;
 8916                 J-F7D-155            J-F7D-109                   32.35063               8             130               0                 Open   ;
 8917                 J-F7D-155            J-F7D-156                   360.3511               8             130               0                 Open   ;
 8918                 J-F7D-69             J-F7D-104                  58.868518               8             130               0                 Open   ;
 8919                 J-F7D-156            J-F7D-145                   5.700827               8             130               0                 Open   ;